<?xml version="1.0" encoding="UTF-8" standalone="yes"?>
<template encoding-version="1.2">
    <description></description>
    <groupId>01ec3525-dc43-1e9b-ffff-ffffad6db508</groupId>
    <name>MiNiFi Flow</name>
    <snippet>
        <connections>
            <id>574874ad-4bc9-3fca-0000-000000000000</id>
            <parentGroupId>cd1496d4-6080-3011-0000-000000000000</parentGroupId>
            <backPressureDataSizeThreshold>1 GB</backPressureDataSizeThreshold>
            <backPressureObjectThreshold>10000</backPressureObjectThreshold>
            <destination>
                <groupId>cd1496d4-6080-3011-0000-000000000000</groupId>
                <id>c7678a7d-ebfb-382e-0000-000000000000</id>
                <type>PROCESSOR</type>
            </destination>
            <flowFileExpiration>0 sec</flowFileExpiration>
            <labelIndex>1</labelIndex>
            <loadBalanceCompression>DO_NOT_COMPRESS</loadBalanceCompression>
            <loadBalancePartitionAttribute></loadBalancePartitionAttribute>
            <loadBalanceStatus>LOAD_BALANCE_NOT_CONFIGURED</loadBalanceStatus>
            <loadBalanceStrategy>DO_NOT_LOAD_BALANCE</loadBalanceStrategy>
            <name></name>
            <selectedRelationships>success</selectedRelationships>
            <source>
                <groupId>cd1496d4-6080-3011-0000-000000000000</groupId>
                <id>cf2b6cfc-512c-3d32-0000-000000000000</id>
                <type>PROCESSOR</type>
            </source>
            <zIndex>0</zIndex>
        </connections>
        <connections>
            <id>6e5b4b3e-c66b-3522-0000-000000000000</id>
            <parentGroupId>cd1496d4-6080-3011-0000-000000000000</parentGroupId>
            <backPressureDataSizeThreshold>1 GB</backPressureDataSizeThreshold>
            <backPressureObjectThreshold>10000</backPressureObjectThreshold>
            <destination>
                <groupId>cd1496d4-6080-3011-0000-000000000000</groupId>
                <id>cf2b6cfc-512c-3d32-0000-000000000000</id>
                <type>PROCESSOR</type>
            </destination>
            <flowFileExpiration>0 sec</flowFileExpiration>
            <labelIndex>1</labelIndex>
            <loadBalanceCompression>DO_NOT_COMPRESS</loadBalanceCompression>
            <loadBalancePartitionAttribute></loadBalancePartitionAttribute>
            <loadBalanceStatus>LOAD_BALANCE_NOT_CONFIGURED</loadBalanceStatus>
            <loadBalanceStrategy>DO_NOT_LOAD_BALANCE</loadBalanceStrategy>
            <name></name>
            <selectedRelationships>success</selectedRelationships>
            <source>
                <groupId>cd1496d4-6080-3011-0000-000000000000</groupId>
                <id>e5aca433-e013-36ef-0000-000000000000</id>
                <type>PROCESSOR</type>
            </source>
            <zIndex>0</zIndex>
        </connections>
        <connections>
            <id>7bd399e3-b365-3cfd-0000-000000000000</id>
            <parentGroupId>cd1496d4-6080-3011-0000-000000000000</parentGroupId>
            <backPressureDataSizeThreshold>1 GB</backPressureDataSizeThreshold>
            <backPressureObjectThreshold>10000</backPressureObjectThreshold>
            <bends>
                <x>650.6762603256807</x>
                <y>270.68179416814064</y>
            </bends>
            <destination>
                <groupId>73514909-618e-31cd-0000-000000000000</groupId>
                <id>551e3122-9607-1ef3-b549-180e3fdf2a43</id>
                <type>REMOTE_INPUT_PORT</type>
            </destination>
            <flowFileExpiration>0 sec</flowFileExpiration>
            <labelIndex>0</labelIndex>
            <loadBalanceCompression>DO_NOT_COMPRESS</loadBalanceCompression>
            <loadBalancePartitionAttribute></loadBalancePartitionAttribute>
            <loadBalanceStatus>LOAD_BALANCE_NOT_CONFIGURED</loadBalanceStatus>
            <loadBalanceStrategy>DO_NOT_LOAD_BALANCE</loadBalanceStrategy>
            <name></name>
            <selectedRelationships>success</selectedRelationships>
            <source>
                <groupId>cd1496d4-6080-3011-0000-000000000000</groupId>
                <id>0a239f4f-d0f3-3c07-0000-000000000000</id>
                <type>PROCESSOR</type>
            </source>
            <zIndex>0</zIndex>
        </connections>
        <connections>
            <id>c2d5485a-dd74-3ac2-0000-000000000000</id>
            <parentGroupId>cd1496d4-6080-3011-0000-000000000000</parentGroupId>
            <backPressureDataSizeThreshold>1 GB</backPressureDataSizeThreshold>
            <backPressureObjectThreshold>10000</backPressureObjectThreshold>
            <destination>
                <groupId>cd1496d4-6080-3011-0000-000000000000</groupId>
                <id>e5aca433-e013-36ef-0000-000000000000</id>
                <type>PROCESSOR</type>
            </destination>
            <flowFileExpiration>0 sec</flowFileExpiration>
            <labelIndex>1</labelIndex>
            <loadBalanceCompression>DO_NOT_COMPRESS</loadBalanceCompression>
            <loadBalancePartitionAttribute></loadBalancePartitionAttribute>
            <loadBalanceStatus>LOAD_BALANCE_NOT_CONFIGURED</loadBalanceStatus>
            <loadBalanceStrategy>DO_NOT_LOAD_BALANCE</loadBalanceStrategy>
            <name></name>
            <selectedRelationships>success</selectedRelationships>
            <source>
                <groupId>cd1496d4-6080-3011-0000-000000000000</groupId>
                <id>aba06206-e0d5-3ea8-0000-000000000000</id>
                <type>PROCESSOR</type>
            </source>
            <zIndex>0</zIndex>
        </connections>
        <connections>
            <id>f386fe65-dc45-3624-0000-000000000000</id>
            <parentGroupId>cd1496d4-6080-3011-0000-000000000000</parentGroupId>
            <backPressureDataSizeThreshold>1 GB</backPressureDataSizeThreshold>
            <backPressureObjectThreshold>10000</backPressureObjectThreshold>
            <destination>
                <groupId>73514909-618e-31cd-0000-000000000000</groupId>
                <id>551e3122-9607-1ef3-b549-180e3fdf2a43</id>
                <type>REMOTE_INPUT_PORT</type>
            </destination>
            <flowFileExpiration>0 sec</flowFileExpiration>
            <labelIndex>1</labelIndex>
            <loadBalanceCompression>DO_NOT_COMPRESS</loadBalanceCompression>
            <loadBalancePartitionAttribute></loadBalancePartitionAttribute>
            <loadBalanceStatus>LOAD_BALANCE_NOT_CONFIGURED</loadBalanceStatus>
            <loadBalanceStrategy>DO_NOT_LOAD_BALANCE</loadBalanceStrategy>
            <name></name>
            <selectedRelationships>success</selectedRelationships>
            <source>
                <groupId>cd1496d4-6080-3011-0000-000000000000</groupId>
                <id>6fcd60bd-57a3-32a0-0000-000000000000</id>
                <type>PROCESSOR</type>
            </source>
            <zIndex>0</zIndex>
        </connections>
        <labels>
            <id>7be4227b-292a-36c5-0000-000000000000</id>
            <parentGroupId>cd1496d4-6080-3011-0000-000000000000</parentGroupId>
            <position>
                <x>1000.3952777099607</x>
                <y>0.0</y>
            </position>
            <height>912.0479431152344</height>
            <label>MiNiFi (Edge Device) Listening For Instructions</label>
            <style>
                <entry>
                    <key>background-color</key>
                    <value>#d4eaff</value>
                </entry>
                <entry>
                    <key>font-size</key>
                    <value>18px</value>
                </entry>
            </style>
            <width>453.9839630126953</width>
        </labels>
        <labels>
            <id>fce8c0a4-a97b-3ef0-0000-000000000000</id>
            <parentGroupId>cd1496d4-6080-3011-0000-000000000000</parentGroupId>
            <position>
                <x>0.0</x>
                <y>21.565875244140443</y>
            </position>
            <height>505.39198303222656</height>
            <label>Generate Data From Edge Device</label>
            <style>
                <entry>
                    <key>background-color</key>
                    <value>#d7ffd6</value>
                </entry>
                <entry>
                    <key>font-size</key>
                    <value>18px</value>
                </entry>
            </style>
            <width>903.9839019775391</width>
        </labels>
        <processors>
            <id>0a239f4f-d0f3-3c07-0000-000000000000</id>
            <parentGroupId>cd1496d4-6080-3011-0000-000000000000</parentGroupId>
            <position>
                <x>502.5930971923831</x>
                <y>91.81349531249998</y>
            </position>
            <bundle>
                <artifact>nifi-standard-nar</artifact>
                <group>org.apache.nifi</group>
                <version>1.8.0.3.3.1.0-10</version>
            </bundle>
            <config>
                <bulletinLevel>WARN</bulletinLevel>
                <comments></comments>
                <concurrentlySchedulableTaskCount>1</concurrentlySchedulableTaskCount>
                <descriptors>
                    <entry>
                        <key>File Size</key>
                        <value>
                            <name>File Size</name>
                        </value>
                    </entry>
                    <entry>
                        <key>Batch Size</key>
                        <value>
                            <name>Batch Size</name>
                        </value>
                    </entry>
                    <entry>
                        <key>Data Format</key>
                        <value>
                            <name>Data Format</name>
                        </value>
                    </entry>
                    <entry>
                        <key>Unique FlowFiles</key>
                        <value>
                            <name>Unique FlowFiles</name>
                        </value>
                    </entry>
                    <entry>
                        <key>generate-ff-custom-text</key>
                        <value>
                            <name>generate-ff-custom-text</name>
                        </value>
                    </entry>
                    <entry>
                        <key>character-set</key>
                        <value>
                            <name>character-set</name>
                        </value>
                    </entry>
                </descriptors>
                <executionNode>ALL</executionNode>
                <lossTolerant>false</lossTolerant>
                <penaltyDuration>30 sec</penaltyDuration>
                <properties>
                    <entry>
                        <key>File Size</key>
                        <value>0B</value>
                    </entry>
                    <entry>
                        <key>Batch Size</key>
                        <value>1</value>
                    </entry>
                    <entry>
                        <key>Data Format</key>
                        <value>Text</value>
                    </entry>
                    <entry>
                        <key>Unique FlowFiles</key>
                        <value>false</value>
                    </entry>
                    <entry>
                        <key>generate-ff-custom-text</key>
                        <value>{
  "id": "${UUID()}",
  "type": "pressure",
  "reading": "${random()}",
  "time": "${now()}"
}</value>
                    </entry>
                    <entry>
                        <key>character-set</key>
                        <value>UTF-8</value>
                    </entry>
                </properties>
                <runDurationMillis>0</runDurationMillis>
                <schedulingPeriod>20 sec</schedulingPeriod>
                <schedulingStrategy>TIMER_DRIVEN</schedulingStrategy>
                <yieldDuration>1 sec</yieldDuration>
            </config>
            <executionNodeRestricted>false</executionNodeRestricted>
            <name>Generate Pressure Readings</name>
            <relationships>
                <autoTerminate>false</autoTerminate>
                <name>success</name>
            </relationships>
            <state>STOPPED</state>
            <style/>
            <type>org.apache.nifi.processors.standard.GenerateFlowFile</type>
        </processors>
        <processors>
            <id>6fcd60bd-57a3-32a0-0000-000000000000</id>
            <parentGroupId>cd1496d4-6080-3011-0000-000000000000</parentGroupId>
            <position>
                <x>112.11651400878918</x>
                <y>90.68197188354429</y>
            </position>
            <bundle>
                <artifact>nifi-standard-nar</artifact>
                <group>org.apache.nifi</group>
                <version>1.8.0.3.3.1.0-10</version>
            </bundle>
            <config>
                <bulletinLevel>WARN</bulletinLevel>
                <comments></comments>
                <concurrentlySchedulableTaskCount>1</concurrentlySchedulableTaskCount>
                <descriptors>
                    <entry>
                        <key>File Size</key>
                        <value>
                            <name>File Size</name>
                        </value>
                    </entry>
                    <entry>
                        <key>Batch Size</key>
                        <value>
                            <name>Batch Size</name>
                        </value>
                    </entry>
                    <entry>
                        <key>Data Format</key>
                        <value>
                            <name>Data Format</name>
                        </value>
                    </entry>
                    <entry>
                        <key>Unique FlowFiles</key>
                        <value>
                            <name>Unique FlowFiles</name>
                        </value>
                    </entry>
                    <entry>
                        <key>generate-ff-custom-text</key>
                        <value>
                            <name>generate-ff-custom-text</name>
                        </value>
                    </entry>
                    <entry>
                        <key>character-set</key>
                        <value>
                            <name>character-set</name>
                        </value>
                    </entry>
                </descriptors>
                <executionNode>ALL</executionNode>
                <lossTolerant>false</lossTolerant>
                <penaltyDuration>30 sec</penaltyDuration>
                <properties>
                    <entry>
                        <key>File Size</key>
                        <value>0B</value>
                    </entry>
                    <entry>
                        <key>Batch Size</key>
                        <value>1</value>
                    </entry>
                    <entry>
                        <key>Data Format</key>
                        <value>Text</value>
                    </entry>
                    <entry>
                        <key>Unique FlowFiles</key>
                        <value>false</value>
                    </entry>
                    <entry>
                        <key>generate-ff-custom-text</key>
                        <value>{
  "id": "${UUID()}",
  "type": "temp",
  "reading": "${random()}",
  "time": "${now()}"
}</value>
                    </entry>
                    <entry>
                        <key>character-set</key>
                        <value>UTF-8</value>
                    </entry>
                </properties>
                <runDurationMillis>0</runDurationMillis>
                <schedulingPeriod>22 sec</schedulingPeriod>
                <schedulingStrategy>TIMER_DRIVEN</schedulingStrategy>
                <yieldDuration>1 sec</yieldDuration>
            </config>
            <executionNodeRestricted>false</executionNodeRestricted>
            <name>Generate Temp Readings</name>
            <relationships>
                <autoTerminate>false</autoTerminate>
                <name>success</name>
            </relationships>
            <state>STOPPED</state>
            <style/>
            <type>org.apache.nifi.processors.standard.GenerateFlowFile</type>
        </processors>
        <processors>
            <id>aba06206-e0d5-3ea8-0000-000000000000</id>
            <parentGroupId>cd1496d4-6080-3011-0000-000000000000</parentGroupId>
            <position>
                <x>1039.9740847412113</x>
                <y>62.720627270507975</y>
            </position>
            <bundle>
                <artifact>nifi-standard-nar</artifact>
                <group>org.apache.nifi</group>
                <version>1.8.0.3.3.1.0-10</version>
            </bundle>
            <config>
                <bulletinLevel>WARN</bulletinLevel>
                <comments></comments>
                <concurrentlySchedulableTaskCount>1</concurrentlySchedulableTaskCount>
                <descriptors>
                    <entry>
                        <key>Base Path</key>
                        <value>
                            <name>Base Path</name>
                        </value>
                    </entry>
                    <entry>
                        <key>Listening Port</key>
                        <value>
                            <name>Listening Port</name>
                        </value>
                    </entry>
                    <entry>
                        <key>Max Data to Receive per Second</key>
                        <value>
                            <name>Max Data to Receive per Second</name>
                        </value>
                    </entry>
                    <entry>
                        <key>SSL Context Service</key>
                        <value>
                            <identifiesControllerService>org.apache.nifi.ssl.RestrictedSSLContextService</identifiesControllerService>
                            <name>SSL Context Service</name>
                        </value>
                    </entry>
                    <entry>
                        <key>Authorized DN Pattern</key>
                        <value>
                            <name>Authorized DN Pattern</name>
                        </value>
                    </entry>
                    <entry>
                        <key>Max Unconfirmed Flowfile Time</key>
                        <value>
                            <name>Max Unconfirmed Flowfile Time</name>
                        </value>
                    </entry>
                    <entry>
                        <key>HTTP Headers to receive as Attributes (Regex)</key>
                        <value>
                            <name>HTTP Headers to receive as Attributes (Regex)</name>
                        </value>
                    </entry>
                    <entry>
                        <key>Return Code</key>
                        <value>
                            <name>Return Code</name>
                        </value>
                    </entry>
                    <entry>
                        <key>multipart-request-max-size</key>
                        <value>
                            <name>multipart-request-max-size</name>
                        </value>
                    </entry>
                    <entry>
                        <key>multipart-read-buffer-size</key>
                        <value>
                            <name>multipart-read-buffer-size</name>
                        </value>
                    </entry>
                </descriptors>
                <executionNode>ALL</executionNode>
                <lossTolerant>false</lossTolerant>
                <penaltyDuration>30 sec</penaltyDuration>
                <properties>
                    <entry>
                        <key>Base Path</key>
                        <value>contentListener</value>
                    </entry>
                    <entry>
                        <key>Listening Port</key>
                        <value>10222</value>
                    </entry>
                    <entry>
                        <key>Max Data to Receive per Second</key>
                    </entry>
                    <entry>
                        <key>SSL Context Service</key>
                    </entry>
                    <entry>
                        <key>Authorized DN Pattern</key>
                        <value>.*</value>
                    </entry>
                    <entry>
                        <key>Max Unconfirmed Flowfile Time</key>
                        <value>60 secs</value>
                    </entry>
                    <entry>
                        <key>HTTP Headers to receive as Attributes (Regex)</key>
                    </entry>
                    <entry>
                        <key>Return Code</key>
                        <value>200</value>
                    </entry>
                    <entry>
                        <key>multipart-request-max-size</key>
                        <value>1 MB</value>
                    </entry>
                    <entry>
                        <key>multipart-read-buffer-size</key>
                        <value>512 KB</value>
                    </entry>
                </properties>
                <runDurationMillis>0</runDurationMillis>
                <schedulingPeriod>0 sec</schedulingPeriod>
                <schedulingStrategy>TIMER_DRIVEN</schedulingStrategy>
                <yieldDuration>1 sec</yieldDuration>
            </config>
            <executionNodeRestricted>false</executionNodeRestricted>
            <name>Listen For Instructions</name>
            <relationships>
                <autoTerminate>false</autoTerminate>
                <name>success</name>
            </relationships>
            <state>STOPPED</state>
            <style/>
            <type>org.apache.nifi.processors.standard.ListenHTTP</type>
        </processors>
        <processors>
            <id>c7678a7d-ebfb-382e-0000-000000000000</id>
            <parentGroupId>cd1496d4-6080-3011-0000-000000000000</parentGroupId>
            <position>
                <x>1047.94204128418</x>
                <y>756.4239260299685</y>
            </position>
            <bundle>
                <artifact>nifi-standard-nar</artifact>
                <group>org.apache.nifi</group>
                <version>1.8.0.3.3.1.0-10</version>
            </bundle>
            <config>
                <bulletinLevel>WARN</bulletinLevel>
                <comments></comments>
                <concurrentlySchedulableTaskCount>1</concurrentlySchedulableTaskCount>
                <descriptors>
                    <entry>
                        <key>HTTP Method</key>
                        <value>
                            <name>HTTP Method</name>
                        </value>
                    </entry>
                    <entry>
                        <key>Remote URL</key>
                        <value>
                            <name>Remote URL</name>
                        </value>
                    </entry>
                    <entry>
                        <key>SSL Context Service</key>
                        <value>
                            <identifiesControllerService>org.apache.nifi.ssl.SSLContextService</identifiesControllerService>
                            <name>SSL Context Service</name>
                        </value>
                    </entry>
                    <entry>
                        <key>Connection Timeout</key>
                        <value>
                            <name>Connection Timeout</name>
                        </value>
                    </entry>
                    <entry>
                        <key>Read Timeout</key>
                        <value>
                            <name>Read Timeout</name>
                        </value>
                    </entry>
                    <entry>
                        <key>Include Date Header</key>
                        <value>
                            <name>Include Date Header</name>
                        </value>
                    </entry>
                    <entry>
                        <key>Follow Redirects</key>
                        <value>
                            <name>Follow Redirects</name>
                        </value>
                    </entry>
                    <entry>
                        <key>Attributes to Send</key>
                        <value>
                            <name>Attributes to Send</name>
                        </value>
                    </entry>
                    <entry>
                        <key>Basic Authentication Username</key>
                        <value>
                            <name>Basic Authentication Username</name>
                        </value>
                    </entry>
                    <entry>
                        <key>Basic Authentication Password</key>
                        <value>
                            <name>Basic Authentication Password</name>
                        </value>
                    </entry>
                    <entry>
                        <key>proxy-configuration-service</key>
                        <value>
                            <identifiesControllerService>org.apache.nifi.proxy.ProxyConfigurationService</identifiesControllerService>
                            <name>proxy-configuration-service</name>
                        </value>
                    </entry>
                    <entry>
                        <key>Proxy Host</key>
                        <value>
                            <name>Proxy Host</name>
                        </value>
                    </entry>
                    <entry>
                        <key>Proxy Port</key>
                        <value>
                            <name>Proxy Port</name>
                        </value>
                    </entry>
                    <entry>
                        <key>Proxy Type</key>
                        <value>
                            <name>Proxy Type</name>
                        </value>
                    </entry>
                    <entry>
                        <key>invokehttp-proxy-user</key>
                        <value>
                            <name>invokehttp-proxy-user</name>
                        </value>
                    </entry>
                    <entry>
                        <key>invokehttp-proxy-password</key>
                        <value>
                            <name>invokehttp-proxy-password</name>
                        </value>
                    </entry>
                    <entry>
                        <key>Put Response Body In Attribute</key>
                        <value>
                            <name>Put Response Body In Attribute</name>
                        </value>
                    </entry>
                    <entry>
                        <key>Max Length To Put In Attribute</key>
                        <value>
                            <name>Max Length To Put In Attribute</name>
                        </value>
                    </entry>
                    <entry>
                        <key>Digest Authentication</key>
                        <value>
                            <name>Digest Authentication</name>
                        </value>
                    </entry>
                    <entry>
                        <key>Always Output Response</key>
                        <value>
                            <name>Always Output Response</name>
                        </value>
                    </entry>
                    <entry>
                        <key>Trusted Hostname</key>
                        <value>
                            <name>Trusted Hostname</name>
                        </value>
                    </entry>
                    <entry>
                        <key>Add Response Headers to Request</key>
                        <value>
                            <name>Add Response Headers to Request</name>
                        </value>
                    </entry>
                    <entry>
                        <key>Content-Type</key>
                        <value>
                            <name>Content-Type</name>
                        </value>
                    </entry>
                    <entry>
                        <key>send-message-body</key>
                        <value>
                            <name>send-message-body</name>
                        </value>
                    </entry>
                    <entry>
                        <key>Use Chunked Encoding</key>
                        <value>
                            <name>Use Chunked Encoding</name>
                        </value>
                    </entry>
                    <entry>
                        <key>Penalize on "No Retry"</key>
                        <value>
                            <name>Penalize on "No Retry"</name>
                        </value>
                    </entry>
                    <entry>
                        <key>use-etag</key>
                        <value>
                            <name>use-etag</name>
                        </value>
                    </entry>
                    <entry>
                        <key>etag-max-cache-size</key>
                        <value>
                            <name>etag-max-cache-size</name>
                        </value>
                    </entry>
                </descriptors>
                <executionNode>ALL</executionNode>
                <lossTolerant>false</lossTolerant>
                <penaltyDuration>30 sec</penaltyDuration>